3
Properties=species:S:1:pos:R:3:momenta:R:3:forces:R:3 energy=-2079.6548 stress="0.0 0.0 0.0 0.0 0.0 0.0 0.0 0.0 0.0" free_energy=-2079.6548 pbc="F F F"
O        0.00808534      -0.00244867       0.11578971       0.37827063      -0.10565598      -0.19422550      -0.02372869      -0.47493494      -0.05285239
H       -0.01317842       0.77899156      -0.44246661      -0.06515996       0.06957088       0.13937605      -0.01506192      -0.01575509      -0.15447974
H       -0.07738127      -0.77151656      -0.47310453      -0.31311067       0.03608509       0.05484945       0.03879061       0.49069005       0.20733213
3
Properties=species:S:1:pos:R:3:momenta:R:3:forces:R:3 energy=-2079.6523 stress="0.0 0.0 0.0 0.0 0.0 0.0 0.0 0.0 0.0" free_energy=-2079.6523 pbc="F F F"
O        0.01372625      -0.00467556       0.11330962       0.38835048      -0.15342169      -0.11326896       0.11158749       0.20081618       0.50371349
H       -0.02968463       0.79715233      -0.41546813      -0.07952375       0.06555767       0.08144522      -0.04338017      -0.13878588      -0.17285617
H       -0.15094108      -0.75272730      -0.45916199      -0.30882673       0.08786403       0.03182375      -0.06820732      -0.06203030      -0.33085728
3
Properties=species:S:1:pos:R:3:momenta:R:3:forces:R:3 energy=-2079.6555 stress="0.0 0.0 0.0 0.0 0.0 0.0 0.0 0.0 0.0" free_energy=-2079.6555 pbc="F F F"
O        0.02007609      -0.00673983       0.11239369       0.42023129      -0.07713268      -0.00061725       0.10269070       0.18506229       0.27426207
H       -0.04868702       0.80673960      -0.40060155      -0.08026165       0.00136000       0.05343555      -0.04243463      -0.20410815      -0.06848935
H       -0.23088401      -0.73322386      -0.46151568      -0.33996965       0.07577269      -0.05281830      -0.06025606       0.01904584      -0.20577273
3
Properties=species:S:1:pos:R:3:momenta:R:3:forces:R:3 energy=-2079.6562 stress="0.0 0.0 0.0 0.0 0.0 0.0 0.0 0.0 0.0" free_energy=-2079.6562 pbc="F F F"
O        0.02652987      -0.00814670       0.11257300       0.41854124      -0.12845325      -0.00331163      -0.18155035      -0.47775984      -0.27931362
H       -0.07161339       0.80463326      -0.39084281      -0.09870755      -0.00836974       0.02550654      -0.00721748       0.09978633      -0.05018781
H       -0.31287195      -0.70854175      -0.47302040      -0.31983369       0.13682299      -0.02219492       0.18876782       0.37797353       0.32950145
3
Properties=species:S:1:pos:R:3:momenta:R:3:forces:R:3 energy=-2079.652 stress="0.0 0.0 0.0 0.0 0.0 0.0 0.0 0.0 0.0" free_energy=-2079.652 pbc="F F F"
O        0.03242854      -0.01096112       0.11196944       0.34772530      -0.23171614      -0.10221242      -0.26916853      -0.13705537      -0.46301770
H       -0.09222958       0.80586333      -0.38500951      -0.07089798       0.03139571       0.03573768       0.10861555       0.13898103       0.15998094
H       -0.38655110      -0.66643396      -0.46683963      -0.27682732       0.20032043       0.06647474       0.16055298      -0.00192566       0.30303678
3
Properties=species:S:1:pos:R:3:momenta:R:3:forces:R:3 energy=-2079.643 stress="0.0 0.0 0.0 0.0 0.0 0.0 0.0 0.0 0.0" free_energy=-2079.643 pbc="F F F"
O        0.03707611      -0.01451787       0.10988639       0.30549377      -0.18211428      -0.19047059      -0.11741056       0.47017205      -0.32901785
H       -0.10402631       0.81506456      -0.36943282      -0.02892063       0.04501590       0.09929244       0.21379618       0.01723734       0.32208246
H       -0.45195056      -0.62210239      -0.44661155      -0.27657314       0.13709838       0.09117815      -0.09638564      -0.48740938       0.00693537
3
Properties=species:S:1:pos:R:3:momenta:R:3:forces:R:3 energy=-2079.647 stress="0.0 0.0 0.0 0.0 0.0 0.0 0.0 0.0 0.0" free_energy=-2079.647 pbc="F F F"
O        0.04144262      -0.01641527       0.10643073       0.25487894      -0.10943283      -0.28321304      -0.41456592       0.01746428      -0.52592736
H       -0.10653903       0.82985709      -0.33571664       0.01489763       0.07272551       0.16209380       0.20101766       0.08478518       0.22677258
H       -0.52127591      -0.60234671      -0.42281115      -0.26977657       0.03670732       0.12111924       0.21354829      -0.10224946       0.29915479
3
Properties=species:S:1:pos:R:3:momenta:R:3:forces:R:3 energy=-2079.6545 stress="0.0 0.0 0.0 0.0 0.0 0.0 0.0 0.0 0.0" free_energy=-2079.6545 pbc="F F F"
O        0.04435604      -0.01845947       0.10135084       0.14013002      -0.14127313      -0.40809525      -0.44810641      -0.24968915      -0.39580324
H       -0.09806605       0.85062662      -0.29154458       0.04571448       0.08466121       0.19087795       0.08013804       0.02765389       0.07557172
H       -0.57650588      -0.59307038      -0.38264936      -0.18584449       0.05661192       0.21721731       0.36796838       0.22203526       0.32023150
3
Properties=species:S:1:pos:R:3:momenta:R:3:forces:R:3 energy=-2079.6572 stress="0.0 0.0 0.0 0.0 0.0 0.0 0.0 0.0 0.0" free_energy=-2079.6572 pbc="F F F"
O        0.04577285      -0.02097814       0.09482059       0.08049704      -0.19024768      -0.41510644       0.31190801       0.20933515       0.21256842
H       -0.08302610       0.87132044      -0.24520659       0.06129580       0.07401124       0.19007289      -0.05700167      -0.09200303      -0.02499515
H       -0.61334958      -0.57039023      -0.32678910      -0.14179284       0.11623643       0.22503354      -0.25490633      -0.11733211      -0.18757325
3
Properties=species:S:1:pos:R:3:momenta:R:3:forces:R:3 energy=-2079.6536 stress="0.0 0.0 0.0 0.0 0.0 0.0 0.0 0.0 0.0" free_energy=-2079.6536 pbc="F F F"
O        0.04798798      -0.02329579       0.08888318       0.22222251      -0.12115929      -0.33625170       0.40072453      -0.03547926       0.28256094
H       -0.07115917       0.88529440      -0.19952484       0.03381520       0.03989985       0.17606614      -0.17630699      -0.02875972      -0.11421996
H       -0.66310626      -0.54882281      -0.27858771      -0.25603771       0.08125943       0.16018556      -0.22441752       0.06423898      -0.16834095
3
Properties=species:S:1:pos:R:3:momenta:R:3:forces:R:3 energy=-2079.65 stress="0.0 0.0 0.0 0.0 0.0 0.0 0.0 0.0 0.0" free_energy=-2079.65 pbc="F F F"
O        0.05190213      -0.02556614       0.08421038       0.22677969      -0.20142874      -0.29673719      -0.35179079      -0.57792127      -0.07798477
H       -0.06727243       0.89464146      -0.16315634      -0.01344720       0.03837746       0.13158429      -0.18169090       0.02575454      -0.10447083
H       -0.72432173      -0.52132994      -0.24217459      -0.21333249       0.16305128       0.16515289       0.53348166       0.55216676       0.18245560
3
Properties=species:S:1:pos:R:3:momenta:R:3:forces:R:3 energy=-2079.6587 stress="0.0 0.0 0.0 0.0 0.0 0.0 0.0 0.0 0.0" free_energy=-2079.6587 pbc="F F F"
O        0.05442421      -0.02965346       0.07965964       0.12525121      -0.27612339      -0.31344237      -0.10678022       0.10799749      -0.06421153
H       -0.07362859       0.90435460      -0.13292701      -0.02643758       0.02097276       0.11810926       0.01241635      -0.17147705       0.03424941
H       -0.75990259      -0.46765983      -0.19740766      -0.09881364       0.25515063       0.19533311       0.09436386       0.06347957       0.02996211
3
Properties=species:S:1:pos:R:3:momenta:R:3:forces:R:3 energy=-2079.6519 stress="0.0 0.0 0.0 0.0 0.0 0.0 0.0 0.0 0.0" free_energy=-2079.6519 pbc="F F F"
O        0.05667892      -0.03329321       0.07444991       0.16135796      -0.19656314      -0.32644886       0.24369204       0.31556281       0.03570374
H       -0.07459849       0.90432419      -0.10070210       0.00736702      -0.00836263       0.14630194       0.19058424       0.10457169       0.04794319
H       -0.78998366      -0.40929617      -0.15100123      -0.16872498       0.20492577       0.18014691      -0.43427628      -0.42013451      -0.08364694
3
Properties=species:S:1:pos:R:3:momenta:R:3:forces:R:3 energy=-2079.6465 stress="0.0 0.0 0.0 0.0 0.0 0.0 0.0 0.0 0.0" free_energy=-2079.6465 pbc="F F F"
O        0.05931050      -0.03596093       0.06912561       0.11424307      -0.16600109      -0.34277120      -0.63932836      -0.02330054      -0.15028708
H       -0.06760129       0.90794299      -0.06461106       0.05656358       0.04049996       0.15443185       0.27733710       0.21055108       0.04323678
H       -0.83464999      -0.37051701      -0.10793901      -0.17080665       0.12550113       0.18833935       0.36199129      -0.18725054       0.10705029
3
Properties=species:S:1:pos:R:3:momenta:R:3:forces:R:3 energy=-2079.6448 stress="0.0 0.0 0.0 0.0 0.0 0.0 0.0 0.0 0.0" free_energy=-2079.6448 pbc="F F F"
O        0.05946231      -0.03844715       0.06375373      -0.10459125      -0.17332654      -0.37805029      -0.90056556       0.34685773      -0.16877249
H       -0.04466734       0.92285072      -0.02531311       0.12884034       0.05820217       0.16295058       0.30336586      -0.25604233       0.06736283
H       -0.86043710      -0.34223546      -0.05895448      -0.02424908       0.11512436       0.21509970       0.59719968      -0.09081538       0.10140966
3
Properties=species:S:1:pos:R:3:momenta:R:3:forces:R:3 energy=-2079.6555 stress="0.0 0.0 0.0 0.0 0.0 0.0 0.0 0.0 0.0" free_energy=-2079.6555 pbc="F F F"
O        0.05656299      -0.03995862       0.05746795      -0.21059839      -0.02174754      -0.40017153       0.06206563       0.42264074      -0.01166783
H       -0.00352110       0.92522921       0.01486058       0.20620677      -0.03970541       0.16965792       0.16616488      -0.18968815       0.02058108
H       -0.85795306      -0.32062149      -0.00384971       0.00439162       0.06145295       0.23051361      -0.22823051      -0.23295259      -0.00891325
3
Properties=species:S:1:pos:R:3:momenta:R:3:forces:R:3 energy=-2079.658 stress="0.0 0.0 0.0 0.0 0.0 0.0 0.0 0.0 0.0" free_energy=-2079.658 pbc="F F F"
O        0.05384453      -0.03980056       0.05128109      -0.15845791      -0.01425213      -0.41184631       0.20038813      -0.26767322      -0.00223755
H        0.04988771       0.91777536       0.05673254       0.22553318      -0.00591926       0.17215795      -0.05561871       0.25349933       0.00163860
H       -0.86699558      -0.31060492       0.05304126      -0.06707527       0.02017139       0.23968836      -0.14476943       0.01417388       0.00059895
3
Properties=species:S:1:pos:R:3:momenta:R:3:forces:R:3 energy=-2079.6511 stress="0.0 0.0 0.0 0.0 0.0 0.0 0.0 0.0 0.0" free_energy=-2079.6511 pbc="F F F"
O        0.05112716      -0.04048836       0.04479000      -0.17987716      -0.07363306      -0.41409577      -0.05717825      -0.22367951      -0.00851856
H        0.10264269       0.92046885       0.09875467       0.20068090       0.00158730       0.16738842      -0.25828689      -0.12458085       0.01551397
H       -0.87962736      -0.30156343       0.11214637      -0.02080375       0.07204576       0.24670735       0.31546512       0.34826034      -0.00699541
3
Properties=species:S:1:pos:R:3:momenta:R:3:forces:R:3 energy=-2079.651 stress="0.0 0.0 0.0 0.0 0.0 0.0 0.0 0.0 0.0" free_energy=-2079.651 pbc="F F F"
O        0.04828594      -0.04176935       0.03840189      -0.17544764      -0.10509275      -0.40638225       0.27719712      -0.02865939      -0.05221078
H        0.14500231       0.91453008       0.13725041       0.13618290      -0.05670586       0.15734529      -0.28573549      -0.24363618       0.02072397
H       -0.87595627      -0.27389079       0.17278757       0.03926474       0.16179862       0.24903696       0.00853838       0.27229556       0.03148681
3
Properties=species:S:1:pos:R:3:momenta:R:3:forces:R:3 energy=-2079.657 stress="0.0 0.0 0.0 0.0 0.0 0.0 0.0 0.0 0.0" free_energy=-2079.657 pbc="F F F"
O        0.04611809      -0.04335667       0.03209686      -0.08563020      -0.10015728      -0.41153954       0.30945498      -0.24370909      -0.12489373
H        0.17228989       0.89589618       0.17434388       0.10019957      -0.07517139       0.15699266      -0.06080219       0.20410877       0.05359495
H       -0.87109462      -0.23052316       0.23312037      -0.01456937       0.17532868       0.25454688      -0.24865277       0.03960032       0.07129879
