3
Properties=species:S:1:pos:R:3:forces:R:3 energy=-2079.65206094553 pbc="F F F"
O        0.05567590       0.40273775      -0.31412035       0.40916503       0.32391295       0.65069509
H       -0.37323604      -0.40273775      -0.58353384      -0.31908025      -0.50543254      -0.28326812
H        0.37323604       0.20878935       0.58353384      -0.09055426       0.18197020      -0.36785712
3
Properties=species:S:1:pos:R:3:forces:R:3 energy=-2079.6504617324304 pbc="F F F"
O       -0.10457157      -0.11245634       0.34919011       0.39088788      -0.00854712       0.34993565
H       -0.75939987      -0.07507889      -0.34919011       0.06102010       0.07015615      -0.28344712
H        0.75939987       0.11245634      -0.02721903      -0.45187671      -0.06182768      -0.06728449
3
Properties=species:S:1:pos:R:3:forces:R:3 energy=-2079.6535053258485 pbc="F F F"
O        0.12380623      -0.17632091       0.37523583      -0.00829068      -0.73043565       0.27039800
H        0.13905733       0.72064337       0.06426637      -0.00885107       0.63002594      -0.29083709
H       -0.13905733      -0.72064337      -0.37523583       0.01668235       0.10130086       0.02032755
3
Properties=species:S:1:pos:R:3:forces:R:3 energy=-2079.6554675388243 pbc="F F F"
O       -0.03293630      -0.06461965       0.29933197       0.16787927      -0.05818134       0.28465925
H       -0.77390629       0.04848386      -0.29933197       0.00518674       0.04427430      -0.20343588
H        0.77390629       0.06461965      -0.21140870      -0.17220736       0.01381140      -0.08166477
3
Properties=species:S:1:pos:R:3:forces:R:3 energy=-2079.652040809105 pbc="F F F"
O       -0.32038333       0.12115585      -0.09436671      -0.22555642       0.07841135       0.13179373
H        0.32038333      -0.12115585      -0.76997346       0.13482830      -0.02887616       0.20052765
H        0.10472336       0.04506229       0.76997346       0.09057725      -0.04953076      -0.33237527
3
Properties=species:S:1:pos:R:3:forces:R:3 energy=-2079.6557742111336 pbc="F F F"
O        0.44424495      -0.01942471       0.33144053       0.10282130      -0.09110597       0.30639057
H        0.40678557       0.30788800      -0.56926357      -0.15610115       0.01717759      -0.14028516
H       -0.44424495      -0.30788800       0.56926357       0.05298987       0.07398463      -0.16652589
3
Properties=species:S:1:pos:R:3:forces:R:3 energy=-2079.648073389165 pbc="F F F"
O       -0.04196733       0.25103390      -0.26952165      -0.40974929       0.30264591      -0.11978647
H       -0.75845001      -0.11329068       0.26952165       0.44358336      -0.06397779      -0.09072637
H        0.75845001      -0.25103390      -0.10876543      -0.03325254      -0.23830169       0.21083747
3
Properties=species:S:1:pos:R:3:forces:R:3 energy=-2079.6546541905254 pbc="F F F"
O        0.39334870      -0.25273270       0.27184422       0.61163870       0.35324579      -0.02959469
H        0.50555704       0.54049518      -0.27184422      -0.10525789      -0.25292011       0.14697301
H       -0.50555704      -0.54049518       0.14326394      -0.50590253      -0.10064049      -0.11766912
3
Properties=species:S:1:pos:R:3:forces:R:3 energy=-2079.648675577116 pbc="F F F"
O        0.31007558      -0.05869584       0.31511631      -0.48742530      -0.29912463      -0.50593503
H       -0.31007558       0.67875239       0.29539857       0.10510357       0.17328656       0.16973483
H       -0.09916844      -0.67875239      -0.31511631       0.38227293       0.12712198       0.33656848
3
Properties=species:S:1:pos:R:3:forces:R:3 energy=-2079.6580485386967 pbc="F F F"
O        0.38107703      -0.34895526      -0.06396054       0.15213974      -0.05270885       0.08403096
H       -0.39964332      -0.18881306      -0.60034800      -0.08840050       0.07478717      -0.00816305
H        0.39964332       0.34895526       0.60034800      -0.06394437      -0.02176814      -0.07631153
3
Properties=species:S:1:pos:R:3:forces:R:3 energy=-2079.6540811187565 pbc="F F F"
O       -0.04981204       0.34427146      -0.27987555       0.09891960       0.43728087      -0.25122318
H       -0.70229833      -0.34427146      -0.15777609      -0.07733442      -0.27493436       0.14983640
H        0.70229833       0.13777253       0.27987555      -0.02168371      -0.16173958       0.10132405
3
Properties=species:S:1:pos:R:3:forces:R:3 energy=-2079.6481879490957 pbc="F F F"
O        0.07495192       0.37391305      -0.17233951       0.07953497       0.36750601       0.14765754
H       -0.11520247      -0.37391305      -0.74469925      -0.00919601      -0.18690271       0.23208260
H        0.11520247       0.07031688       0.74469925      -0.07051842      -0.18025034      -0.37953918
3
Properties=species:S:1:pos:R:3:forces:R:3 energy=-2079.6552275344084 pbc="F F F"
O        0.41503942      -0.25951268       0.29577161      -0.02421167      -0.45621051       0.38862762
H        0.52597658       0.46662314      -0.31156408      -0.04210999       0.36561439      -0.32275739
H       -0.52597658      -0.46662314       0.31156408       0.06638399       0.09020526      -0.06633601
3
Properties=species:S:1:pos:R:3:forces:R:3 energy=-2079.6183136579048 pbc="F F F"
O       -0.33790662       0.20100173      -0.18697113      -0.20524691       1.16195915      -0.75777034
H        0.44228818       0.66157165       0.14611337      -0.15629346      -0.57099809       0.18343043
H       -0.44228818      -0.66157165       0.18697113       0.36150726      -0.59090311       0.57460951
3
Properties=species:S:1:pos:R:3:forces:R:3 energy=-2079.6517482867157 pbc="F F F"
O       -0.07942043       0.31018598      -0.14283608       0.75737819       0.26291661      -0.07002323
H       -0.74792490      -0.31018598       0.11977794      -0.63273470      -0.44252165       0.17376247
H        0.74792490      -0.10262756       0.14283608      -0.12561707       0.17954843      -0.10383766
3
Properties=species:S:1:pos:R:3:forces:R:3 energy=-2079.656730419205 pbc="F F F"
O        0.14248988       0.38138394      -0.12134271      -0.25683199       0.40217122       0.01219279
H       -0.71387278       0.05143271       0.16920549       0.01991062      -0.02984089      -0.00117103
H        0.71387278      -0.38138394      -0.16920549       0.23688814      -0.37245811      -0.01148455
3
Properties=species:S:1:pos:R:3:forces:R:3 energy=-2079.6430814605774 pbc="F F F"
O        0.39670884      -0.16832485       0.36253119       1.26988013       0.45038362      -0.18678464
H        0.51091869       0.41934930      -0.40001783      -0.21618274      -0.26515917       0.28878319
H       -0.51091869      -0.41934930       0.40001783      -1.05386189      -0.18486459      -0.10175584
3
Properties=species:S:1:pos:R:3:forces:R:3 energy=-2079.653908326461 pbc="F F F"
O       -0.15598889      -0.35532093      -0.19820842       0.06995597      -0.17569696      -0.54468362
H        0.26503870       0.35532093      -0.69964167      -0.10087755      -0.08159432       0.25885467
H       -0.26503870      -0.04813375       0.69964167       0.03042988       0.25675681       0.28483902
3
Properties=species:S:1:pos:R:3:forces:R:3 energy=-2079.64466815644 pbc="F F F"
O       -0.36409263       0.20030472       0.16971578       0.02548025      -1.07639684      -0.11002728
H        0.36409263       0.71365657      -0.16971578       0.35198832       0.51532943      -0.14022751
H       -0.09507016      -0.71365657      -0.05419643      -0.37798485       0.56091355       0.25002304
3
Properties=species:S:1:pos:R:3:forces:R:3 energy=-2079.6567336845706 pbc="F F F"
O        0.20574021      -0.27814828       0.07430119      -0.22828616       0.21689751       0.32736455
H        0.29055283       0.27814828      -0.70445559       0.04840997       0.03058230      -0.14811700
H       -0.29055283       0.26801114       0.70445559       0.18033580      -0.24751462      -0.17834515
3
Properties=species:S:1:pos:R:3:forces:R:3 energy=-2079.653542061218 pbc="F F F"
O        0.30920865       0.33966526       0.36016415      -0.19266573      -0.17476576       0.65345307
H        0.33844913       0.32575137      -0.58959552       0.08126635       0.05334222      -0.70112934
H       -0.33844913      -0.33966526       0.58959552       0.11150407       0.12111810       0.04801572
3
Properties=species:S:1:pos:R:3:forces:R:3 energy=-2079.6480521642848 pbc="F F F"
O        0.21816854      -0.36950804       0.12120633       0.33234848       0.08791790       0.93747000
H       -0.21816854      -0.22492758      -0.71059020      -0.35627753       0.25858337      -0.46192926
H       -0.01051734       0.36950804       0.71059020       0.02408481      -0.34605596      -0.47666081
3
Properties=species:S:1:pos:R:3:forces:R:3 energy=-2079.624114036742 pbc="F F F"
O        0.20349501      -0.31414299       0.14164525       0.10334293      -0.35240869       0.97521847
H        0.12750454      -0.02392291      -0.76354640      -0.26971059       0.51149036      -0.14979875
H       -0.20349501       0.31414299       0.76354640       0.16601712      -0.15944420      -0.82557481
3
Properties=species:S:1:pos:R:3:forces:R:3 energy=-2079.6571911079536 pbc="F F F"
O       -0.08474485      -0.27543295      -0.20720407      -0.00470856      -0.16488774      -0.16947489
H       -0.75414075       0.27543295       0.20720407       0.03844771       0.08287273       0.09337147
H        0.75414075      -0.05335792       0.20708890      -0.03381855       0.08241137       0.07679397
3
Properties=species:S:1:pos:R:3:forces:R:3 energy=-2079.657710573294 pbc="F F F"
O        0.05967696       0.02087638      -0.32536776       0.01716032       0.01288997      -0.18373213
H       -0.76668065      -0.02087638       0.16488066       0.02936365      -0.00633875       0.09457181
H        0.76668065      -0.01804390       0.32536776      -0.04572502      -0.00659745       0.08882391
3
Properties=species:S:1:pos:R:3:forces:R:3 energy=-2079.6429666285326 pbc="F F F"
O        0.44820894       0.22960366       0.20786308       0.04129213       0.69660045       0.41443898
H       -0.44820894       0.59183415       0.27709052       0.29866204      -0.42624075      -0.20226572
H        0.42811935      -0.59183415      -0.27709052      -0.34003084      -0.26987432      -0.21260798
3
Properties=species:S:1:pos:R:3:forces:R:3 energy=-2079.6560463249843 pbc="F F F"
O       -0.08609908      -0.35758343       0.40003319      -0.07528036      -0.18336590       0.28148650
H       -0.40965482       0.54423379       0.33130790       0.04191757       0.07259932      -0.13461186
H        0.40965482      -0.54423379      -0.40003319       0.03299512       0.11121086      -0.14691804
3
Properties=species:S:1:pos:R:3:forces:R:3 energy=-2079.653342329652 pbc="F F F"
O        0.36812343      -0.18354106       0.28198868      -0.19759994      -0.66785675       0.43357241
H        0.48377998       0.57139095      -0.28198868       0.03224904       0.54578888      -0.44201319
H       -0.48377998      -0.57139095       0.04288229       0.16579657       0.12099299       0.00792327
3
Properties=species:S:1:pos:R:3:forces:R:3 energy=-2079.646949831076 pbc="F F F"
O        0.04412300      -0.18293029       0.24296986      -0.41854534      -0.33785028       0.47888811
H       -0.77941119       0.04221438      -0.20667510       0.33788407       0.09162101      -0.10356286
H        0.77941119       0.18293029      -0.24296986       0.08058681       0.24618130      -0.37585875
3
Properties=species:S:1:pos:R:3:forces:R:3 energy=-2079.6580501713793 pbc="F F F"
O       -0.26863030       0.02226608      -0.41295571      -0.12046792       0.02083108      -0.18981217
H       -0.56461261       0.41362145       0.41295571       0.02458618       0.01342718       0.10520574
H        0.56461261      -0.41362145      -0.21902320       0.09601035      -0.03390380       0.08407606
3
Properties=species:S:1:pos:R:3:forces:R:3 energy=-2079.655382911417 pbc="F F F"
O        0.12040050      -0.38874531       0.17153771       0.58463424       0.22767259       0.16011706
H       -0.70341550      -0.07790137      -0.20201163      -0.27485486       0.13791748      -0.13265387
H        0.70341550       0.38874531       0.20201163      -0.31018063      -0.36530267      -0.02753029
3
Properties=species:S:1:pos:R:3:forces:R:3 energy=-2079.6554182862174 pbc="F F F"
O        0.16310238      -0.32947144      -0.15200156      -0.06409833      -0.39234780      -0.17317111
H       -0.70856575       0.05674368      -0.27740418       0.04227465       0.12917840       0.06369929
H        0.70856575       0.32947144       0.27740418       0.02207477       0.26304002       0.10948031
3
Properties=species:S:1:pos:R:3:forces:R:3 energy=-2079.655246310264 pbc="F F F"
O        0.32123420      -0.12291777       0.17278728       0.23422186       0.42545415       0.17455097
H       -0.13313877       0.72733400       0.18722161       0.09082762       0.00025685       0.03296777
H       -0.32123420      -0.72733400      -0.18722161      -0.32507781      -0.42620635      -0.20750234
3
Properties=species:S:1:pos:R:3:forces:R:3 energy=-2079.63038299563 pbc="F F F"
O       -0.29564552       0.05717138      -0.28571378      -0.35036955      -0.69892092      -0.65118468
H        0.02910263       0.71415897       0.32360693       0.47970320      -0.00978696       0.32844128
H        0.29564552      -0.71415897      -0.32360693      -0.12999735       0.70797568       0.32223633
3
Properties=species:S:1:pos:R:3:forces:R:3 energy=-2079.6561483676783 pbc="F F F"
O       -0.33589402       0.33640840      -0.08366825       0.07488364       0.36228399      -0.36996727
H        0.45243111       0.09274802      -0.58339519      -0.09482687      -0.03555522       0.11441235
H       -0.45243111      -0.33640840       0.58339519       0.01945107      -0.32642024       0.25578257
3
Properties=species:S:1:pos:R:3:forces:R:3 energy=-2079.6557001961664 pbc="F F F"
O       -0.40052280      -0.16285090      -0.07356077       0.14296343      -0.41559649      -0.15138034
H       -0.07255105       0.67567480       0.24594267       0.04631570       0.41768690       0.15646542
H        0.40052280      -0.67567480      -0.24594267      -0.18903878      -0.00149746      -0.00490104
3
Properties=species:S:1:pos:R:3:forces:R:3 energy=-2079.6548631739624 pbc="F F F"
O        0.13718773       0.11896845      -0.37615113      -0.63599039      -0.14831944       0.12935242
H       -0.73324342      -0.11896845      -0.00697248       0.50458973       0.14381688      -0.24662826
H        0.73324342       0.10083043       0.37615113       0.13146046       0.00457507       0.11828484
3
Properties=species:S:1:pos:R:3:forces:R:3 energy=-2079.6578735694907 pbc="F F F"
O       -0.28783083       0.13334202      -0.27062225      -0.13169891      -0.14270333      -0.04542811
H        0.39508735       0.65898308       0.15463445       0.05881872      -0.01429919       0.08766316
H       -0.39508735      -0.65898308       0.27062225       0.07275904       0.15795666      -0.04206850
3
Properties=species:S:1:pos:R:3:forces:R:3 energy=-2079.648018150053 pbc="F F F"
O        0.12024993       0.39038593      -0.24915445      -0.32623203       0.48449872       0.00364917
H       -0.67380182       0.20022266       0.27149830       0.40626200      -0.18794611      -0.16000984
H        0.67380182      -0.39038593      -0.27149830      -0.08007912      -0.29622895       0.15581802
3
Properties=species:S:1:pos:R:3:forces:R:3 energy=-2079.6351400899644 pbc="F F F"
O        0.16042671      -0.38603888       0.11442498      -0.46332640      -1.01131188      -0.13465665
H       -0.68212092      -0.14428675      -0.29387574       0.41922138       0.28715810       0.17072615
H        0.68212092       0.38603888       0.29387574       0.04455002       0.72399905      -0.03703402
3
Properties=species:S:1:pos:R:3:forces:R:3 energy=-2079.6511844668175 pbc="F F F"
O        0.13814698      -0.35897135       0.17546460       0.18693690      -0.49853751      -0.75705321
H        0.00117185      -0.04033433      -0.72796138       0.05370274      -0.12988684       0.19759474
H       -0.13814698       0.35897135       0.72796138      -0.24107945       0.62890474       0.55972961
3
Properties=species:S:1:pos:R:3:forces:R:3 energy=-2079.6560218347377 pbc="F F F"
O       -0.09917691       0.30395052      -0.40148920      -0.29474723       0.32106257      -0.19301977
H       -0.62766840       0.27177515       0.40148920       0.06453937      -0.07367178       0.04794182
H        0.62766840      -0.30395052      -0.27930576       0.22937245      -0.24828651       0.14471867
3
Properties=species:S:1:pos:R:3:forces:R:3 energy=-2079.6188344838147 pbc="F F F"
O       -0.21966401       0.29621540      -0.02977234       0.14645334       1.18640494      -1.13094635
H        0.38837334      -0.08063763      -0.68189792      -0.25774226      -0.21733809       0.56359830
H       -0.38837334      -0.29621540       0.68189792       0.11083533      -0.96988817       0.56733864
3
Properties=species:S:1:pos:R:3:forces:R:3 energy=-2079.652621500062 pbc="F F F"
O       -0.20367963      -0.19216262       0.41727875       0.77970756       0.28220184       0.06119159
H       -0.67095047      -0.15823843      -0.41727875      -0.23303020      -0.02093413      -0.26697808
H        0.67095047       0.19216262       0.21512670      -0.54727632      -0.26070479       0.20619046
3
Properties=species:S:1:pos:R:3:forces:R:3 energy=-2079.654374457487 pbc="F F F"
O       -0.38432028       0.28914723      -0.17464197      -0.23820748       0.16493931      -0.02400685
H        0.46358638       0.11248549      -0.59145345       0.05413150      -0.13926700       0.12991060
H       -0.46358638      -0.28914723       0.59145345       0.18420927      -0.02573248      -0.10601909
3
Properties=species:S:1:pos:R:3:forces:R:3 energy=-2079.652454966386 pbc="F F F"
O       -0.30163073      -0.41870825      -0.17984001      -0.39300323       0.59730670       0.26113216
H       -0.64776118       0.41870825       0.17984001       0.06098379      -0.50939800      -0.21415419
H        0.64776118      -0.29263054      -0.15677889       0.33215112      -0.08781120      -0.04689924
3
Properties=species:S:1:pos:R:3:forces:R:3 energy=-2079.657278728613 pbc="F F F"
O        0.27340891       0.25487725       0.14283826       0.19833270       0.20254705       0.07130554
H        0.04330668      -0.02842519      -0.74510058      -0.09286003      -0.09650426      -0.06254451
H       -0.27340891      -0.25487725       0.74510058      -0.10504515      -0.10542676      -0.00877476
3
Properties=species:S:1:pos:R:3:forces:R:3 energy=-2079.6560814276713 pbc="F F F"
O        0.45994951      -0.16957380      -0.29904435      -0.01394268      -0.19768967      -0.50562012
H       -0.45994951      -0.18012443      -0.58858250       0.08841089       0.02931042       0.09971135
H        0.45849163       0.18012443       0.58858250      -0.07518858       0.16839066       0.40614516
3
Properties=species:S:1:pos:R:3:forces:R:3 energy=-2079.6430139763424 pbc="F F F"
O        0.36918130      -0.15972117       0.01045613       0.89394009       0.56926254       0.07365147
H        0.04864457       0.75062147       0.05865277      -0.17631274      -0.37508485      -0.03218250
H       -0.36918130      -0.75062147      -0.05865277      -0.71754476      -0.19404168      -0.04167260
3
Properties=species:S:1:pos:R:3:forces:R:3 energy=-2079.6570746432258 pbc="F F F"
O        0.24760506       0.33835993      -0.24954583       0.10719614       0.24442827      -0.26197265
H       -0.28089150      -0.33835993      -0.67892861      -0.07235820      -0.11624416       0.01921987
H        0.28089150       0.10813558       0.67892861      -0.03568054      -0.12801205       0.24288473
3
Properties=species:S:1:pos:R:3:forces:R:3 energy=-2079.6537891405947 pbc="F F F"
O       -0.19426434       0.30783336      -0.12354642      -0.28821616       0.33403204      -0.02488226
H        0.19426434      -0.30783336      -0.74731827       0.16116627      -0.17584357       0.05496273
H        0.15991880       0.11162569       0.74731827       0.12774841      -0.15802845      -0.03002858
3
Properties=species:S:1:pos:R:3:forces:R:3 energy=-2079.657712478091 pbc="F F F"
O        0.29656089      -0.10016301       0.20619419       0.12838445      -0.25700009      -0.00458412
H       -0.16683426       0.73925028       0.19987316      -0.14715499       0.12912631      -0.03442728
H       -0.29656089      -0.73925028      -0.20619419       0.01861777       0.12741720       0.03829391
3
Properties=species:S:1:pos:R:3:forces:R:3 energy=-2079.6383583804745 pbc="F F F"
O        0.06060879      -0.33210445       0.43161633      -0.40974034       0.29254724       0.80250934
H       -0.42333675       0.51264756       0.42181139       0.41156613      -0.53683080      -0.34089802
H        0.42333675      -0.51264756      -0.43161633      -0.00196376       0.24323702      -0.46130860
3
Properties=species:S:1:pos:R:3:forces:R:3 energy=-2079.6544925548983 pbc="F F F"
O        0.44338996      -0.03366337       0.32583564       0.43093605       0.04036565       0.10901668
H        0.40759672       0.29225159      -0.57805639      -0.17492173      -0.03107004      -0.00444096
H       -0.44338996      -0.29225159       0.57805639      -0.25656876      -0.00927870      -0.10515437
3
Properties=species:S:1:pos:R:3:forces:R:3 energy=-2079.652315099866 pbc="F F F"
O       -0.20994519       0.31250503      -0.14647178      -0.21504364       0.26349510      -0.45346468
H        0.20994519      -0.31250503      -0.74801248       0.02818171      -0.02022846       0.24568600
H        0.01835975       0.06550905       0.74801248       0.18753396      -0.24287208       0.20862082
3
Properties=species:S:1:pos:R:3:forces:R:3 energy=-2079.639943715767 pbc="F F F"
O       -0.16586236       0.42984062      -0.20083697      -0.11594185       0.34043548      -0.14242067
H       -0.43800703      -0.42984062      -0.54394237       0.29202916       0.03064200       0.36087071
H        0.43800703       0.32276205       0.54394237      -0.17503866      -0.37090315      -0.21917005
3
Properties=species:S:1:pos:R:3:forces:R:3 energy=-2079.6577546557382 pbc="F F F"
O        0.11060699       0.29009087       0.00272211       0.04516364       0.26649985       0.07291490
H        0.09755922      -0.29009087      -0.76063934      -0.01927623      -0.16125261      -0.10142920
H       -0.11060699      -0.25710432       0.76063934      -0.02578452      -0.10481499       0.02778859
3
Properties=species:S:1:pos:R:3:forces:R:3 energy=-2079.6457639589157 pbc="F F F"
O        0.23961971       0.41226245      -0.34616208      -0.54736687       0.60614960       0.42256444
H       -0.43333193       0.51556147       0.34616208       0.21262104       0.19771307      -0.28069466
H        0.43333193      -0.51556147      -0.30390782       0.33485479      -0.80361203      -0.14217759
3
Properties=species:S:1:pos:R:3:forces:R:3 energy=-2079.6555706699737 pbc="F F F"
O       -0.02435646      -0.40979359       0.29091789      -0.25347696      -0.37871314      -0.32641000
H       -0.35552316      -0.23839056      -0.60281993       0.13956684       0.03708266       0.29992579
H        0.35552316       0.40979359       0.60281993       0.11421582       0.34173023       0.02687214
3
Properties=species:S:1:pos:R:3:forces:R:3 energy=-2079.6552256296113 pbc="F F F"
O        0.03912905       0.31578530       0.01799603      -0.39450475       0.12186583       0.00629092
H       -0.75370491      -0.23140679      -0.01642059      -0.05725030       0.11121971       0.00648005
H        0.75370491      -0.31578530      -0.01799603       0.45235715      -0.23258849      -0.01281330
3
Properties=species:S:1:pos:R:3:forces:R:3 energy=-2079.6540707784297 pbc="F F F"
O        0.36279828      -0.12863687       0.09807431      -0.23276029      -0.72079597      -0.13656097
H       -0.03568773       0.73934923       0.12487382      -0.17994109       0.35135094       0.00706292
H       -0.36279828      -0.73934923      -0.12487382       0.41207891       0.36914354       0.12938029
3
Properties=species:S:1:pos:R:3:forces:R:3 energy=-2079.6571413111187 pbc="F F F"
O       -0.32145816       0.28104089       0.27741598      -0.34384445       0.12436638      -0.01899629
H       -0.59492396      -0.28104089      -0.45530040       0.09324477      -0.00688732       0.03405329
H        0.59492396       0.06917767       0.45530040       0.25067245      -0.11722750      -0.01573186
3
Properties=species:S:1:pos:R:3:forces:R:3 energy=-2079.636204327234 pbc="F F F"
O        0.10490088      -0.40164604       0.26417763      -0.37874764      -0.69941812      -0.04939815
H       -0.61026111      -0.27151271      -0.37860009       0.50490191       0.31867196       0.29798054
H        0.61026111       0.40164604       0.37860009      -0.12571276       0.38118705      -0.24896169
3
Properties=species:S:1:pos:R:3:forces:R:3 energy=-2079.640747540082 pbc="F F F"
O       -0.21864861       0.28670684      -0.06994384      -0.69146498       0.66571954       0.62122917
H        0.35065304      -0.13974673      -0.69474981       0.47713071      -0.59109090      -0.30820006
H       -0.35065304      -0.28670684       0.69474981       0.21455940      -0.07586868      -0.31368016
3
Properties=species:S:1:pos:R:3:forces:R:3 energy=-2079.6571181814415 pbc="F F F"
O        0.21795012       0.30494575      -0.39168778       0.10708291       0.10099104      -0.01359857
H       -0.51529246      -0.30494575      -0.51946924       0.01734857      -0.03201399       0.11528252
H        0.51529246       0.19659664       0.51946924      -0.12369383      -0.06946977      -0.10223869
3
Properties=species:S:1:pos:R:3:forces:R:3 energy=-2079.6497931486997 pbc="F F F"
O       -0.07178867       0.32952032      -0.42882744       0.02783723       0.19455529      -0.45078800
H       -0.48105991       0.45740518       0.42882744       0.08106982      -0.21152128       0.19053496
H        0.48105991      -0.45740518      -0.39836813      -0.10882956       0.01707341       0.26084147
3
Properties=species:S:1:pos:R:3:forces:R:3 energy=-2079.646700030561 pbc="F F F"
O        0.44244280      -0.26264965       0.09334300      -0.81803510      -0.86736804      -0.05070015
H        0.31347779       0.66291715      -0.09334300      -0.01140608       0.56219797      -0.09732629
H       -0.44244280      -0.66291715      -0.05185972       0.82937289       0.30515629       0.14786220
3
Properties=species:S:1:pos:R:3:forces:R:3 energy=-2079.6555638671275 pbc="F F F"
O       -0.00884078       0.33633487       0.43551078       0.26513999       0.25808401      -0.45553015
H        0.37205171       0.54813098      -0.43551078      -0.21974480      -0.13502756       0.48521163
H       -0.37205171      -0.54813098       0.34479337      -0.04495739      -0.12292425      -0.02939147
3
Properties=species:S:1:pos:R:3:forces:R:3 energy=-2079.6572547825945 pbc="F F F"
O        0.39041060       0.19141216       0.33807013      -0.33987174       0.00769696      -0.15899539
H       -0.52535708       0.48435176       0.20996605       0.31817198      -0.07513690       0.07379267
H        0.52535708      -0.48435176      -0.33807013       0.02258133       0.06770296       0.08548842
3
Properties=species:S:1:pos:R:3:forces:R:3 energy=-2079.6451057155114 pbc="F F F"
O        0.33873448      -0.11417382      -0.08793774       0.69793238       0.13843602       1.02864405
H       -0.33873448      -0.16319287      -0.74523780      -0.76694841       0.00288493      -0.50927963
H       -0.07723143       0.16319287       0.74523780       0.06851183      -0.14079239      -0.51968262
3
Properties=species:S:1:pos:R:3:forces:R:3 energy=-2079.6541820729944 pbc="F F F"
O        0.31250618      -0.22321452       0.14204969      -0.36345117       0.24371226       0.05986871
H       -0.04960680      -0.03540185      -0.73150784       0.13767708      -0.09621660      -0.09335501
H       -0.31250618       0.22321452       0.73150784       0.22559925      -0.14678131       0.03375668
3
Properties=species:S:1:pos:R:3:forces:R:3 energy=-2079.6380484427987 pbc="F F F"
O        0.10413355       0.37672658      -0.32033844      -0.55398695       0.04699874      -1.14853676
H       -0.46795088      -0.37672658      -0.54476688       0.41254227       0.33249257       0.41456923
H        0.46795088       0.25321821       0.54476688       0.14148710      -0.37958474       0.73381964
3
Properties=species:S:1:pos:R:3:forces:R:3 energy=-2079.6563388473737 pbc="F F F"
O       -0.39424945       0.23740725      -0.15490373      -0.19600945       0.43904901      -0.13353560
H        0.39424945       0.69068083       0.15490373       0.08384605      -0.00155716       0.03808714
H       -0.24645942      -0.69068083       0.00793851       0.11190825      -0.43735625       0.09586364
3
Properties=species:S:1:pos:R:3:forces:R:3 energy=-2079.6557916264205 pbc="F F F"
O       -0.31951859      -0.28599527       0.30748107      -0.20503032      -0.20230099       0.06289932
H       -0.37487593      -0.14452241      -0.64312177       0.12062799       0.09969160       0.05668332
H        0.37487593       0.28599527       0.64312177       0.08469338       0.10227880      -0.11966625
3
Properties=species:S:1:pos:R:3:forces:R:3 energy=-2079.654049553549 pbc="F F F"
O       -0.34949555       0.30459472      -0.13038727       0.13126311       0.45544149      -0.58853188
H        0.45506575       0.03738237      -0.59080991      -0.09743469      -0.00117587       0.09021277
H       -0.45506575      -0.30459472       0.59080991      -0.03440758      -0.45473182       0.49781194
3
Properties=species:S:1:pos:R:3:forces:R:3 energy=-2079.6561312245058 pbc="F F F"
O       -0.40071887       0.17790793       0.02006880       0.18496008       0.56130318       0.01334449
H        0.40071887       0.72469300       0.01337769      -0.30573052      -0.20543522       0.00265734
H       -0.08871449      -0.72469300      -0.02006880       0.12037510      -0.35631533      -0.01574976
3
Properties=species:S:1:pos:R:3:forces:R:3 energy=-2079.65424465918 pbc="F F F"
O       -0.05766425      -0.38723098       0.35311427       0.50353727       0.25541109       0.50514061
H       -0.51810088      -0.24717496      -0.47047046      -0.20208461       0.10978231      -0.40786955
H        0.51810088       0.38723098       0.47047046      -0.30053612      -0.36562190      -0.09836044
3
Properties=species:S:1:pos:R:3:forces:R:3 energy=-2079.656782937178 pbc="F F F"
O        0.21496043      -0.20857697       0.34701488       0.24734318       0.00022698       0.32698588
H       -0.04912082       0.70689791       0.22976318      -0.07672152       0.08532669      -0.07977398
H       -0.21496043      -0.70689791      -0.34701488      -0.17038409      -0.08650853      -0.24696533
3
Properties=species:S:1:pos:R:3:forces:R:3 energy=-2079.648613263044 pbc="F F F"
O        0.25138894      -0.40080395       0.15747126      -0.26351670      -0.30834445      -0.78610066
H       -0.25138894      -0.22399116      -0.65514941       0.24294633      -0.24369735       0.25095167
H        0.13756742       0.40080395       0.65514941       0.02083720       0.55232910       0.53463806
3
Properties=species:S:1:pos:R:3:forces:R:3 energy=-2079.6577508461437 pbc="F F F"
O        0.08181038       0.26951911       0.21480111      -0.28529061       0.08410840       0.02962034
H       -0.74681523       0.02303265      -0.21384062       0.05250373       0.05522046       0.06872513
H        0.74681523      -0.26951911      -0.21480111       0.23330685      -0.13978359      -0.09892726
3
Properties=species:S:1:pos:R:3:forces:R:3 energy=-2079.6387758031206 pbc="F F F"
O        0.42980999       0.07113123      -0.33539474       0.90137325       0.26179473       0.31024507
H       -0.43977356      -0.18064998      -0.62899960      -0.54787086      -0.11571518       0.20167251
H        0.43977356       0.18064998       0.62899960      -0.35395758      -0.14597295      -0.51159578
3
Properties=species:S:1:pos:R:3:forces:R:3 energy=-2079.647466575278 pbc="F F F"
O        0.26119968      -0.38352927       0.10542777       0.45328562      -0.11166374       0.67531783
H       -0.26119968      -0.26546743      -0.68228543      -0.33670419       0.29043816      -0.28546570
H        0.13567800       0.38352927       0.68228543      -0.11661147      -0.17928273      -0.38910770
3
Properties=species:S:1:pos:R:3:forces:R:3 energy=-2079.627603352647 pbc="F F F"
O        0.00913495       0.20447617       0.24263224       0.87471538       0.26756748       0.62381740
H       -0.78729323       0.01651245      -0.24263224      -0.12629023      -0.34111708      -0.54294278
H        0.78729323      -0.20447617      -0.17028493      -0.74788712       0.07442707      -0.08007239
3
Properties=species:S:1:pos:R:3:forces:R:3 energy=-2079.657347845531 pbc="F F F"
O        0.06030772      -0.26219195       0.31266212       0.26387511       0.10431830      -0.22311654
H       -0.72809769       0.26219195       0.13737521       0.01012243       0.00913878      -0.01377371
H        0.72809769       0.06153769      -0.31266212      -0.27393080      -0.11400946       0.23760692
3
Properties=species:S:1:pos:R:3:forces:R:3 energy=-2079.656870285724 pbc="F F F"
O       -0.30217777      -0.17967493      -0.45298838       0.01070109       0.08059499      -0.33290189
H        0.40746883       0.47303230      -0.45311238      -0.06824166      -0.08614446       0.10785275
H       -0.40746883      -0.47303230       0.45311238       0.05833067       0.00490937       0.22475429
3
Properties=species:S:1:pos:R:3:forces:R:3 energy=-2079.658109764313 pbc="F F F"
O       -0.14794881      -0.40414188       0.22301497       0.04138530      -0.16014539       0.02655317
H       -0.66724985       0.40414188       0.24265627       0.01294767       0.09834424      -0.03520566
H        0.66724985      -0.18940873      -0.24265627      -0.05458879       0.06110716       0.00904890
3
Properties=species:S:1:pos:R:3:forces:R:3 energy=-2079.6452295273134 pbc="F F F"
O        0.28184519       0.22227796       0.10537784       0.23965275       0.26764065       1.12823394
H        0.01181217      -0.05666802      -0.75716858      -0.38916735      -0.37100852      -0.69095523
H       -0.28184519      -0.22227796       0.75716858       0.14973808       0.10324800      -0.43763352
3
Properties=species:S:1:pos:R:3:forces:R:3 energy=-2079.65623680468 pbc="F F F"
O        0.35078540      -0.40608635      -0.00397537      -0.08639457      -0.45510329       0.28396546
H        0.47060654       0.40608635      -0.48818827       0.04273020       0.43967554      -0.24743126
H       -0.47060654      -0.29853630       0.48818827       0.04288611       0.01627472      -0.03658989
3
Properties=species:S:1:pos:R:3:forces:R:3 energy=-2079.6578958828263 pbc="F F F"
O        0.25732472       0.17422180       0.02866856       0.17856770       0.13120855       0.15219657
H       -0.17331696      -0.15311452      -0.76121719      -0.12441811      -0.09489994      -0.24168639
H       -0.25732472      -0.17422180       0.76121719      -0.05472470      -0.03676421       0.08919281
3
Properties=species:S:1:pos:R:3:forces:R:3 energy=-2079.6520731906535 pbc="F F F"
O        0.01201698       0.10198990       0.29731078      -0.74430223       0.11396256       0.13595239
H       -0.75013424       0.06238041      -0.29731078       0.08360673       0.03590083       0.21336857
H        0.75013424      -0.10198990      -0.26433448       0.66004759      -0.14981593      -0.34926994
3
Properties=species:S:1:pos:R:3:forces:R:3 energy=-2079.656774501648 pbc="F F F"
O       -0.33600435       0.33231708      -0.08623550       0.18279666       0.22788923      -0.36898213
H        0.44596143       0.07207032      -0.59297144      -0.20109957       0.01726547       0.17339799
H       -0.44596143      -0.33231708       0.59297144       0.01788876      -0.24504718       0.19568457
3
Properties=species:S:1:pos:R:3:forces:R:3 energy=-2079.652363264018 pbc="F F F"
O       -0.12898246       0.33116702      -0.10632650      -0.04522432       0.33912853      -0.38546053
H        0.12898246      -0.33116702      -0.75775438      -0.01921853      -0.04602738       0.26075133
H       -0.12288888      -0.07968385       0.75775438       0.06423218      -0.29365343       0.12428467
3
Properties=species:S:1:pos:R:3:forces:R:3 energy=-2079.6468687411484 pbc="F F F"
O       -0.04671242      -0.37703418       0.39650978      -0.24535715      -0.16244941       0.55406120
H       -0.47674799       0.48554648       0.38259577       0.20618249      -0.09321237      -0.26892980
H        0.47674799      -0.48554648      -0.39650978       0.03883035       0.25512591      -0.28526196
3
Properties=species:S:1:pos:R:3:forces:R:3 energy=-2079.6575579174237 pbc="F F F"
O        0.25968124       0.29975092       0.41572649       0.15039571       0.17342807       0.08889693
H        0.36758360       0.41716478      -0.53325790      -0.06235820      -0.07140694      -0.00960605
H       -0.36758360      -0.41716478       0.53325790      -0.08833128      -0.10157900      -0.07944020
3
Properties=species:S:1:pos:R:3:forces:R:3 energy=-2079.6518266555045 pbc="F F F"
O        0.07527196      -0.32920827       0.14589733      -0.08491593      -0.54165594       0.18340590
H       -0.75899723       0.04537597      -0.14589733       0.04847646       0.21634040      -0.07052063
H        0.75899723       0.32920827       0.03042704       0.03632907       0.32552935      -0.11285894
3
Properties=species:S:1:pos:R:3:forces:R:3 energy=-2079.6528699400073 pbc="F F F"
O        0.16298457       0.25367692       0.44383779       0.02793550       0.06625877       0.47534312
H        0.39602368       0.52684686      -0.44383779      -0.06631827      -0.10731050      -0.26471540
H       -0.39602368      -0.52684686       0.38154575       0.03812576       0.04091633      -0.21142281
3
Properties=species:S:1:pos:R:3:forces:R:3 energy=-2079.6461732181465 pbc="F F F"
O       -0.31755446       0.27308405      -0.13108949      -0.28705119       0.38806115      -0.11581124
H        0.42340580      -0.04736401      -0.65287347       0.02511001      -0.22690506       0.24126478
H       -0.42340580      -0.27308405       0.65287347       0.26180646      -0.16185281      -0.12603364
3
Properties=species:S:1:pos:R:3:forces:R:3 energy=-2079.6382489907064 pbc="F F F"
O        0.02982623       0.40063526      -0.28742838      -0.30004257       0.43271896      -0.89720595
H       -0.42732327      -0.40063526      -0.56614620       0.19071303      -0.00653703       0.37042981
H        0.42732327       0.27766658       0.56614620       0.10916108      -0.42573198       0.52669222
3
Properties=species:S:1:pos:R:3:forces:R:3 energy=-2079.657598462388 pbc="F F F"
O       -0.22522751      -0.27683106       0.42016050       0.00064843      -0.11782580       0.31121915
H       -0.55845031      -0.18175160      -0.47216172      -0.05558021       0.05991072      -0.26491574
H        0.55845031       0.27683106       0.47216172       0.05509144       0.05766260      -0.04570733
3
Properties=species:S:1:pos:R:3:forces:R:3 energy=-2079.6571176372136 pbc="F F F"
O        0.30363424      -0.25672570       0.17088498       0.05545978      -0.16347276       0.35576609
H        0.21223725       0.09528346      -0.71206679      -0.03029356       0.14564539      -0.39431326
H       -0.30363424       0.25672570       0.71206679      -0.02572271       0.01740061       0.03823159
